168
tk
C  2.59862883827922  2.34889479268451  -0.00007454948397
C  2.91861031568451  3.68861240636259  -0.00004684209933
C  1.69414861053405  4.38783218876334  0.00005715108036
C  0.70275511779179  3.43160927942644  0.00008649977192
O  1.26011061475974  2.20624580412965  6.87783831e-6
C  -0.73490896075328  3.42487065009892  0.00017792283713
C  -1.73511167310897  4.37188214368636  0.00026367536709
C  -2.95291225709486  3.66112414935205  0.00031982563617
C  -2.62054839922702  2.32442860500244  0.00026286398005
O  -1.28067615473632  2.19437978717088  0.00017796764528
C  -3.3335575337348  1.07601228125376  0.00026648375454
C  -4.65378536200686  0.68328766086033  0.00034074692077
C  -4.64711987448242  -0.72673815031197  0.00029011263545
C  -3.32331681167339  -1.10722101878505  0.00018852338965
O  -2.54078197455058  -0.01186645686624  0.00017514933276
C  -2.59862885533694  -2.34889367824456  0.00009569778545
C  -2.9186103312349  -3.68861129057195  0.00006376476921
C  -1.6941486260604  -4.38783107301841  -0.00004238821397
C  -0.70275513578811  -3.43160816072389  -0.00006898559167
O  -1.26011063261188  -2.20624468609381  0.00001508865299
C  0.73490894259729  -3.42486953683154  -0.00016279211333
C  1.73511165223353  -4.37188103350413  -0.00026074426478
C  2.95291223818241  -3.66112304229417  -0.00031362609022
C  2.6205483831073  -2.32442749718135  -0.0002456261105
O  1.28067613984031  -2.19437867621756  -0.00015498912319
C  3.33355751733221  -1.07601117321559  -0.00024770163521
C  4.65378534506543  -0.68328655256494  -0.00032022260084
C  4.64711985662878  0.72673925892672  -0.00026921528379
C  3.32331679326892  1.10722212907137  -0.00016770865411
O  2.54078195745314  0.01186756575413  -0.00015597713418
H  3.90191958441618  4.11151556551402  -0.00009479509061
H  -1.6096563762073  5.43489913333972  0.00028306686049
H  -5.51167423745822  1.32342147263666  0.00042118001633
H  -3.90191959830948  -4.11151445342673  0.0001101712272
H  1.60965635023973  -5.43489802275371  -0.00029026392389
H  5.51167422119296  -1.32342036421899  -0.00039982884659
H  1.55970619529642  5.44979436604657  0.00010468054858
H  -3.93965867716111  4.07567620567316  0.00037977560324
H  -5.49950024991486  -1.37403654326783  0.00032797609598
H  -1.55970610467604  -5.44979360203819  -0.0000954805685
H  3.93965866888216  -4.07567511092703  -0.00039766590677
H  5.49950028029926  1.37403768065235  -0.00029606106355
C  1.638543009841568  3.096022511406555  3.24992545051603
C  1.4810168327013917  4.464385377680469  3.24995315790067
C  0.09125195374372659  4.70264647961763  3.25005715108036
C  -0.5133056991786488  3.4650143234074693  3.25008649977192
O  0.42953613992364437  2.504176114846828  3.25000687783831
C  -1.8619632779880069  2.966972008956037  3.25017792283713
C  -3.1257433928465312  3.5147822462449803  3.25026367536709
C  -4.0270080641147565  2.4303758735274994  3.25031982563617
C  -3.257511397799174  1.2879680685689987  3.25026286398005
O  -1.953964021541327  1.624025451209546  3.25017796764528
C  -3.500537290070454  -0.12902302490316908  3.25026648375454
C  -4.606825907099435  -0.9496079637359688  3.25034074692077
C  -4.118305167628736  -2.2723190826137993  3.25029011263545
C  -2.7442043929251816  -2.1770887131765044  3.25018852338965
O  -2.3834955052328706  -0.8801494370471451  3.25017514933276
C  -1.638543407031493  -3.0960214700096413  3.25009569778545
C  -1.4810172289368535  -4.464384334498786  3.25006376476921
C  -0.09125234994096379  -4.702645436470678  3.24995761178603
C  0.5133052996488332  -3.465013278326042  3.24993101440833
O  -0.42953653908994666  -2.5041750703425905  3.25001508865299
C  1.861962880167088  -2.966970969036609  3.24983720788667
C  3.125742993525349  -3.5147812101547524  3.24973925573522
C  4.027007667706772  -2.4303748397018174  3.24968637390978
C  3.2575110037544643  -1.2879670330709643  3.2497543738895
O  1.9539636275752423  -1.6240244123496446  3.24984501087681
C  3.5005368956856877  0.12902406050844506  3.24975229836479
C  4.606825512120349  0.9496089993986581  3.24967977739916
C  4.118304771683227  2.272320118264595  3.24973078471621
C  2.7442039958903504  2.177089750209667  3.24983229134589
O  2.383495109904537  0.8801504732132436  3.24984402286582
H  2.26038389737308  5.198095932667181  3.24990520490939
H  -3.3714271992683895  4.556599705819567  3.25028306686049
H  -5.631916410866746  -0.641494220633567  3.25042118001633
H  -2.260384290784766  -5.19809489239875  3.2501101712272
H  3.3714267950240693  -4.556598671091519  3.24970973607611
H  5.631916016481231  0.6414952566424256  3.24960017115341
H  -0.3982950478565588  5.654582487035794  3.25010468054858
H  -5.09603154735682  2.4824402297669215  3.25037977560324
H  -4.697891627392083  -3.1721118640943886  3.25032797609598
H  0.39829487170560546  -5.654581738108762  3.2499045194315
H  5.096031165151924  -2.482439203873629  3.24960233409323
H  4.697891266935663  3.172112943278306  3.24970393893645
C  2.59862883827922  2.34889479268451  6.49992545051603
C  2.91861031568451  3.68861240636259  6.49995315790067
C  1.69414861053405  4.38783218876334  6.50005715108036
C  0.70275511779179  3.43160927942644  6.50008649977192
O  1.26011061475974  2.20624580412965  6.50000687783831
C  -0.73490896075328  3.42487065009892  6.50017792283713
C  -1.73511167310897  4.37188214368636  6.50026367536709
C  -2.95291225709486  3.66112414935205  6.50031982563617
C  -2.62054839922702  2.32442860500244  6.50026286398005
O  -1.28067615473632  2.19437978717088  6.50017796764528
C  -3.3335575337348  1.07601228125376  6.50026648375454
C  -4.65378536200686  0.68328766086033  6.50034074692077
C  -4.64711987448242  -0.72673815031197  6.50029011263545
C  -3.32331681167339  -1.10722101878505  6.50018852338965
O  -2.54078197455058  -0.01186645686624  6.50017514933276
C  -2.59862885533694  -2.34889367824456  6.50009569778545
C  -2.9186103312349  -3.68861129057195  6.50006376476921
C  -1.6941486260604  -4.38783107301841  6.49995761178603
C  -0.70275513578811  -3.43160816072389  6.49993101440833
O  -1.26011063261188  -2.20624468609381  6.50001508865299
C  0.73490894259729  -3.42486953683154  6.49983720788667
C  1.73511165223353  -4.37188103350413  6.49973925573522
C  2.95291223818241  -3.66112304229417  6.49968637390978
C  2.6205483831073  -2.32442749718135  6.4997543738895
O  1.28067613984031  -2.19437867621756  6.49984501087681
C  3.33355751733221  -1.07601117321559  6.49975229836479
C  4.65378534506543  -0.68328655256494  6.49967977739916
C  4.64711985662878  0.72673925892672  6.49973078471621
C  3.32331679326892  1.10722212907137  6.49983229134589
O  2.54078195745314  0.01186756575413  6.49984402286582
H  3.90191958441618  4.11151556551402  6.49990520490939
H  -1.6096563762073  5.43489913333972  6.50028306686049
H  -5.51167423745822  1.32342147263666  6.50042118001633
H  -3.90191959830948  -4.11151445342673  6.5001101712272
H  1.60965635023973  -5.43489802275371  6.49970973607611
H  5.51167422119296  -1.32342036421899  6.49960017115341
H  1.55970619529642  5.44979436604657  6.50010468054858
H  -3.93965867716111  4.07567620567316  6.50037977560324
H  -5.49950024991486  -1.37403654326783  6.50032797609598
H  -1.55970610467604  -5.44979360203819  6.4999045194315
H  3.93965866888216  -4.07567511092703  6.49960233409323
H  5.49950028029926  1.37403768065235  6.49970393893645
C  1.638543009841568  3.096022511406555  9.74992545051603
C  1.4810168327013917  4.464385377680469  9.74995315790067
C  0.09125195374372659  4.70264647961763  9.75005715108036
C  -0.5133056991786488  3.4650143234074693  9.75008649977192
O  0.42953613992364437  2.504176114846828  9.75000687783831
C  -1.8619632779880069  2.966972008956037  9.75017792283713
C  -3.1257433928465312  3.5147822462449803  9.75026367536709
C  -4.0270080641147565  2.4303758735274994  9.75031982563617
C  -3.257511397799174  1.2879680685689987  9.75026286398005
O  -1.953964021541327  1.624025451209546  9.75017796764528
C  -3.500537290070454  -0.12902302490316908  9.75026648375454
C  -4.606825907099435  -0.9496079637359688  9.75034074692077
C  -4.118305167628736  -2.2723190826137993  9.75029011263545
C  -2.7442043929251816  -2.1770887131765044  9.75018852338965
O  -2.3834955052328706  -0.8801494370471451  9.75017514933276
C  -1.638543407031493  -3.0960214700096413  9.75009569778545
C  -1.4810172289368535  -4.464384334498786  9.75006376476921
C  -0.09125234994096379  -4.702645436470678  9.74995761178603
C  0.5133052996488332  -3.465013278326042  9.74993101440833
O  -0.42953653908994666  -2.5041750703425905  9.75001508865299
C  1.861962880167088  -2.966970969036609  9.74983720788667
C  3.125742993525349  -3.5147812101547524  9.74973925573522
C  4.027007667706772  -2.4303748397018174  9.74968637390978
C  3.2575110037544643  -1.2879670330709643  9.7497543738895
O  1.9539636275752423  -1.6240244123496446  9.74984501087681
C  3.5005368956856877  0.12902406050844506  9.74975229836479
C  4.606825512120349  0.9496089993986581  9.74967977739916
C  4.118304771683227  2.272320118264595  9.74973078471621
C  2.7442039958903504  2.177089750209667  9.74983229134589
O  2.383495109904537  0.8801504732132436  9.74984402286582
H  2.26038389737308  5.198095932667181  9.74990520490939
H  -3.3714271992683895  4.556599705819567  9.75028306686049
H  -5.631916410866746  -0.641494220633567  9.75042118001633
H  -2.260384290784766  -5.19809489239875  9.7501101712272
H  3.3714267950240693  -4.556598671091519  9.74970973607611
H  5.631916016481231  0.6414952566424256  9.74960017115341
H  -0.3982950478565588  5.654582487035794  9.75010468054858
H  -5.09603154735682  2.4824402297669215  9.75037977560324
H  -4.697891627392083  -3.1721118640943886  9.75032797609598
H  0.39829487170560546  -5.654581738108762  9.7499045194315
H  5.096031165151924  -2.482439203873629  9.74960233409323
H  4.697891266935663  3.172112943278306  9.74970393893645